*SPEF "1481-1998"
*DESIGN "system"
*DATE "Tue Sep  9 00:06:35 2025"
*VENDOR "Synopsys, Inc."
*PROGRAM "icc2 /home/synopsys/icc2/O-2018.06-SP1/linux64/nwtn/bin/icc2_exec"
*VERSION "O-2018.06-SP1 Jul 17, 2018"
*DESIGN_FLOW "ICC2 SPEF DR"
*DIVIDER /
*DELIMITER :
*T_UNIT 1 NS
*C_UNIT 1 FF
*R_UNIT 1 OHM
*L_UNIT 1 HENRY

// XY_UNIT 1 UM
// PARASITIC_TECH minTLU at 125.000 degree

*NAME_MAP
*1 data_in_8b[7]
*2 data_in_8b[6]
*3 data_in_8b[5]
*4 data_in_8b[4]
*5 data_in_8b[3]
*6 data_in_8b[2]
*7 data_in_8b[1]
*8 data_in_8b[0]
*9 kin
*10 rdispout
*11 k_err
*12 pdata[7]
*13 pdata[6]
*14 pdata[5]
*15 pdata[4]
*16 pdata[3]
*17 pdata[2]
*18 pdata[1]
*19 pdata[0]
*20 kout
*21 code_err
*22 disp_err
*23 fun_sclk
*24 fun_pclk
*25 scan_clk
*26 fun_rst_n
*27 scan_rst
*28 test_mode
*29 scan_en
*30 scan_in_1
*31 scan_out_1
*32 scan_in_2
*33 scan_out_2
*34 scan_in_3
*35 scan_out_3
*36 scan_in_4
*37 scan_out_4
*38 scan_in_5
*39 scan_out_5
*40 VDD
*41 VSS
*42 U1
*43 U2
*44 U12
*45 U13
*46 U14
*47 U3
*48 U4
*49 U5
*50 U6
*51 U7
*52 xofiller!SHFILL1!x150000y150000
*53 xofiller!SHFILL1!x153200y150000
*54 xofiller!SHFILL1!x156400y150000
*55 xofiller!SHFILL1!x159600y150000
*56 xofiller!SHFILL1!x162800y150000
*57 xofiller!SHFILL1!x166000y150000
*58 xofiller!SHFILL1!x169200y150000
*59 xofiller!SHFILL1!x172400y150000
*60 xofiller!SHFILL1!x175600y150000
*61 xofiller!SHFILL1!x178800y150000
*62 xofiller!SHFILL1!x182000y150000
*63 xofiller!SHFILL1!x185200y150000
*64 xofiller!SHFILL1!x188400y150000
*65 xofiller!SHFILL1!x191600y150000
*66 sclk_mux/U1
*67 pclk_mux/U1
*68 rst_mux/U3
*69 transmitter/U1
*70 transmitter/U2
*71 transmitter/serial/U26
*72 transmitter/serial/U27
*73 transmitter/serial/U30
*74 transmitter/serial/U37
*75 transmitter/serial/data_out_reg
*76 transmitter/serial/counter_reg[1]
*77 transmitter/serial/counter_reg[0]
*78 transmitter/serial/counter_reg[2]
*79 transmitter/serial/counter_reg[3]
*80 transmitter/serial/U3
*81 transmitter/serial/U4
*82 transmitter/serial/U5
*83 transmitter/serial/U6
*84 transmitter/serial/U7
*85 transmitter/serial/U8
*86 transmitter/serial/U9
*87 transmitter/serial/U10
*88 transmitter/serial/U11
*89 transmitter/serial/U12
*90 transmitter/serial/U13
*91 transmitter/serial/U14
*92 transmitter/serial/U15
*93 transmitter/serial/U16
*94 transmitter/serial/U17
*95 transmitter/serial/U18
*96 transmitter/serial/U19
*97 transmitter/serial/U20
*98 transmitter/serial/U21
*99 transmitter/serial/U22
*100 transmitter/serial/U23
*101 PLACE_optlc_6865
*102 PLACE_optlc_6866
*103 PLACE_optlc_6867
*104 PLACE_optlc_6868
*105 transmitter/serial/U29
*106 transmitter/serial/U31
*107 transmitter/serial/U32
*108 transmitter/serial/U33
*109 PLACE_optlc_6869
*110 PLACE_optlc_6870
*111 PLACE_optlc_6871
*112 PLACE_optlc_6872
*113 PLACE_optlc_6873
*114 PLACE_optlc_6874
*115 PLACE_optlc_6875
*116 transmitter/serial/U40
*117 transmitter/serial/U41
*118 transmitter/serial/U43
*119 transmitter/serial/U44
*120 transmitter/serial/U45
*121 transmitter/serial/U46
*122 transmitter/serial/U47
*123 transmitter/serial/U48
*124 transmitter/serial/U49
*125 transmitter/serial/U50
*126 transmitter/serial/U51
*127 transmitter/serial/U52
*128 PLACE_optlc_6876
*129 PLACE_optlc_6877
*130 PLACE_optlc_6878
*131 transmitter/serial/U55
*132 transmitter/serial/U56
*133 PLACE_optlc_6879
*134 transmitter/serial/U58
*135 transmitter/serial/U59
*136 transmitter/serial/U60
*137 transmitter/serial/U61
*138 transmitter/serial/U62
*139 transmitter/serial/U63
*140 transmitter/serial/U64
*141 transmitter/serial/U65
*142 transmitter/serial/U66
*143 transmitter/serial/U67
*144 transmitter/serial/U68
*145 transmitter/serial/U69
*146 PLACE_optlc_6880
*147 PLACE_optlc_6882
*148 transmitter/serial/U71
*149 transmitter/serial/U73
*150 transmitter/serial/U75
*151 transmitter/serial/U76
*152 transmitter/serial/U77
*153 transmitter/serial/U78
*154 transmitter/serial/U79
*155 transmitter/serial/U80
*156 transmitter/serial/U81
*157 transmitter/serial/U82
*158 transmitter/serial/U83
*159 transmitter/serial/U84
*160 transmitter/serial/U85
*161 transmitter/serial/U86
*162 transmitter/serial/U87
*163 transmitter/serial/U88
*164 transmitter/serial/U89
*165 transmitter/serial/U90
*166 transmitter/serial/U91
*167 transmitter/serial/U92
*168 transmitter/enc/valid_reg
*169 transmitter/enc/counter_reg
*170 PLACE_optlc_6883
*171 xofiller!SHFILL1!x194800y150000
*172 transmitter/enc/U5
*173 transmitter/enc/U6
*174 transmitter/enc/U7
*175 xofiller!SHFILL1!x198000y150000
*176 xofiller!SHFILL1!x201200y150000
*177 xofiller!SHFILL1!x204400y150000
*178 xofiller!SHFILL1!x207600y150000
*179 xofiller!SHFILL1!x210800y150000
*180 xofiller!SHFILL1!x214000y150000
*181 xofiller!SHFILL1!x217200y150000
*182 xofiller!SHFILL1!x220400y150000
*183 transmitter/enc/U12
*184 transmitter/enc/U13
*185 transmitter/enc/U14
*186 transmitter/enc/U15
*187 transmitter/enc/U16
*188 transmitter/enc/U17
*189 xofiller!SHFILL1!x223600y150000
*190 xofiller!SHFILL1!x226800y150000
*191 xofiller!SHFILL1!x230000y150000
*192 xofiller!SHFILL1!x233200y150000
*193 xofiller!SHFILL1!x236400y150000
*194 xofiller!SHFILL1!x239600y150000
*195 transmitter/enc/U21
*196 transmitter/enc/U22
*197 transmitter/enc/U23
*198 transmitter/enc/U24
*199 transmitter/enc/U25
*200 transmitter/enc/U26
*201 transmitter/enc/U27
*202 transmitter/enc/U28
*203 transmitter/enc/U29
*204 transmitter/enc/U30
*205 transmitter/enc/U31
*206 transmitter/enc/U32
*207 transmitter/enc/U33
*208 transmitter/enc/U34
*209 transmitter/enc/U35
*210 transmitter/enc/U36
*211 transmitter/enc/U37
*212 xofiller!SHFILL1!x242800y150000
*213 xofiller!SHFILL1!x246000y150000
*214 transmitter/enc/U39
*215 transmitter/enc/U40
*216 transmitter/enc/U41
*217 transmitter/enc/U42
*218 transmitter/enc/U43
*219 transmitter/enc/U44
*220 transmitter/enc/U45
*221 transmitter/enc/U46
*222 transmitter/enc/U47
*223 transmitter/enc/U48
*224 transmitter/enc/U49
*225 transmitter/enc/U51
*226 transmitter/enc/kin_ff/q_reg[0]
*227 transmitter/enc/k_err_ff/q_reg[0]
*228 transmitter/enc/curr_dis_ff/q_reg[0]
*229 transmitter/enc/data_ff/q_reg[7]
*230 transmitter/enc/data_ff/q_reg[0]
*231 transmitter/enc/data_ff/q_reg[6]
*232 transmitter/enc/data_ff/q_reg[5]
*233 transmitter/enc/data_ff/q_reg[2]
*234 transmitter/enc/data_ff/q_reg[3]
*235 transmitter/enc/data_ff/q_reg[4]
*236 transmitter/enc/data_ff/q_reg[1]
*237 transmitter/enc/data_ff/U3
*238 transmitter/enc/data_ff/U4
*239 transmitter/enc/data_ff/U5
*240 transmitter/enc/data_ff/U6
*241 transmitter/enc/data_ff/U7
*242 transmitter/enc/data_ff/U8
*243 transmitter/enc/data_ff/U9
*244 transmitter/enc/data_ff/U10
*245 transmitter/enc/data_ff/U11
*246 transmitter/enc/data_ff/U12
*247 transmitter/enc/data_ff/U13
*248 transmitter/enc/data_ff/U14
*249 transmitter/enc/data_ff/U15
*250 transmitter/enc/data_ff/U16
*251 transmitter/enc/data_ff/U17
*252 transmitter/enc/dataout_ff/q_reg[9]
*253 transmitter/enc/dataout_ff/q_reg[8]
*254 transmitter/enc/dataout_ff/q_reg[7]
*255 transmitter/enc/dataout_ff/q_reg[6]
*256 transmitter/enc/dataout_ff/q_reg[5]
*257 transmitter/enc/dataout_ff/q_reg[4]
*258 transmitter/enc/dataout_ff/q_reg[3]
*259 transmitter/enc/dataout_ff/q_reg[2]
*260 transmitter/enc/dataout_ff/q_reg[1]
*261 transmitter/enc/dataout_ff/q_reg[0]
*262 transmitter/enc/dataout_ff/U3
*263 transmitter/enc/dataout_ff/U4
*264 transmitter/enc/dataout_ff/U5
*265 transmitter/enc/dataout_ff/U6
*266 transmitter/enc/dataout_ff/U7
*267 transmitter/enc/dataout_ff/U8
*268 transmitter/enc/dataout_ff/U9
*269 transmitter/enc/dataout_ff/U10
*270 transmitter/enc/dataout_ff/U11
*271 transmitter/enc/dataout_ff/U12
*272 transmitter/enc/dataout_ff/U13
*273 transmitter/enc/dataout_ff/U14
*274 transmitter/enc/dataout_ff/U15
*275 transmitter/enc/dataout_ff/U16
*276 transmitter/enc/dataout_ff/U17
*277 transmitter/enc/dataout_ff/U18
*278 transmitter/enc/dataout_ff/U19
*279 transmitter/enc/dataout_ff/U20
*280 transmitter/enc/enc_inst_3b/U32
*281 transmitter/enc/enc_inst_3b/U37
*282 transmitter/enc/enc_inst_3b/U39
*283 transmitter/enc/enc_inst_3b/U48
*284 transmitter/enc/enc_inst_3b/U57
*285 transmitter/enc/enc_inst_3b/U59
*286 xofiller!SHFILL1!x249200y150000
*287 xofiller!SHFILL1!x252400y150000
*288 xofiller!SHFILL1!x274800y150000
*289 xofiller!SHFILL1!x278000y150000
*290 xofiller!SHFILL1!x281200y150000
*291 xofiller!SHFILL1!x303600y150000
*292 xofiller!SHFILL1!x306800y150000
*293 xofiller!SHFILL1!x329200y150000
*294 xofiller!SHFILL1!x332400y150000
*295 xofiller!SHFILL1!x354800y150000
*296 transmitter/enc/enc_inst_3b/U9
*297 transmitter/enc/enc_inst_3b/U10
*298 transmitter/enc/enc_inst_3b/U11
*299 transmitter/enc/enc_inst_3b/U12
*300 transmitter/enc/enc_inst_3b/U13
*301 transmitter/enc/enc_inst_3b/U14
*302 transmitter/enc/enc_inst_3b/U15
*303 transmitter/enc/enc_inst_3b/U16
*304 transmitter/enc/enc_inst_3b/U17
*305 transmitter/enc/enc_inst_3b/U18
*306 transmitter/enc/enc_inst_3b/U19
*307 transmitter/enc/enc_inst_3b/U20
*308 transmitter/enc/enc_inst_3b/U21
*309 transmitter/enc/enc_inst_3b/U22
*310 transmitter/enc/enc_inst_3b/U23
*311 transmitter/enc/enc_inst_3b/U24
*312 transmitter/enc/enc_inst_3b/U25
*313 transmitter/enc/enc_inst_3b/U26
*314 transmitter/enc/enc_inst_3b/U27
*315 transmitter/enc/enc_inst_3b/U28
*316 transmitter/enc/enc_inst_3b/U29
*317 xofiller!SHFILL1!x358000y150000
*318 xofiller!SHFILL1!x361200y150000
*319 transmitter/enc/enc_inst_3b/U31
*320 xofiller!SHFILL1!x364400y150000
*321 xofiller!SHFILL1!x367600y150000
*322 transmitter/enc/enc_inst_3b/U34
*323 transmitter/enc/enc_inst_3b/U35
*324 transmitter/enc/enc_inst_3b/U36
*325 transmitter/enc/enc_inst_3b/U38
*326 transmitter/enc/enc_inst_3b/U40
*327 transmitter/enc/enc_inst_3b/U41
*328 transmitter/enc/enc_inst_3b/U42
*329 transmitter/enc/enc_inst_3b/U43
*330 transmitter/enc/enc_inst_3b/U44
*331 transmitter/enc/enc_inst_3b/U45
*332 transmitter/enc/enc_inst_3b/U46
*333 transmitter/enc/enc_inst_3b/U47
*334 transmitter/enc/enc_inst_3b/U49
*335 transmitter/enc/enc_inst_3b/U50
*336 transmitter/enc/enc_inst_3b/U51
*337 transmitter/enc/enc_inst_3b/U52
*338 transmitter/enc/enc_inst_3b/U53
*339 transmitter/enc/enc_inst_3b/U54
*340 transmitter/enc/enc_inst_3b/U55
*341 transmitter/enc/enc_inst_3b/U56
*342 transmitter/enc/enc_inst_3b/U58
*343 transmitter/enc/enc_inst_3b/U61
*344 transmitter/enc/enc_inst_3b/U62
*345 transmitter/enc/enc_inst_3b/U63
*346 transmitter/enc/enc_inst_3b/U64
*347 transmitter/enc/enc_inst_3b/U65
*348 transmitter/enc/enc_inst_3b/U66
*349 transmitter/enc/enc_inst_3b/U67
*350 transmitter/enc/enc_inst_3b/U68
*351 transmitter/enc/enc_inst_3b/U69
*352 xofiller!SHFILL1!x370800y150000
*353 xofiller!SHFILL1!x374000y150000
*354 xofiller!SHFILL1!x377200y150000
*355 xofiller!SHFILL1!x380400y150000
*356 xofiller!SHFILL1!x383600y150000
*357 xofiller!SHFILL1!x386800y150000
*358 transmitter/enc/enc_inst_3b/U73
*359 transmitter/enc/enc_inst_3b/U74
*360 xofiller!SHFILL1!x390000y150000
*361 xofiller!SHFILL1!x393200y150000
*362 transmitter/enc/enc_inst_3b/U76
*363 transmitter/enc/enc_inst_3b/U77
*364 transmitter/enc/enc_inst_3b/U78
*365 transmitter/enc/enc_inst_3b/U79
*366 xofiller!SHFILL1!x396400y150000
*367 xofiller!SHFILL1!x399600y150000
*368 transmitter/enc/enc_inst_3b/U81
*369 xofiller!SHFILL1!x402800y150000
*370 xofiller!SHFILL1!x406000y150000
*371 xofiller!SHFILL1!x409200y150000
*372 xofiller!SHFILL1!x412400y150000
*373 xofiller!SHFILL1!x434800y150000
*374 xofiller!SHFILL1!x438000y150000
*375 transmitter/enc/enc_inst_3b/U85
*376 xofiller!SHFILL1!x441200y150000
*377 xofiller!SHFILL1!x444400y150000
*378 xofiller!SHFILL1!x447600y150000
*379 xofiller!SHFILL1!x450800y150000
*380 transmitter/enc/enc_inst_3b/U88
*381 transmitter/enc/enc_inst_3b/U89
*382 xofiller!SHFILL1!x454000y150000
*383 xofiller!SHFILL1!x476400y150000
*384 transmitter/enc/enc_inst_3b/U91
*385 transmitter/enc/enc_inst_3b/U92
*386 transmitter/enc/enc_inst_3b/U93
*387 xofiller!SHFILL1!x479600y150000
*388 xofiller!SHFILL1!x482800y150000
*389 transmitter/enc/enc_inst_3b/U95
*390 transmitter/enc/enc_inst_3b/U96
*391 transmitter/enc/enc_inst_3b/U97
*392 transmitter/enc/enc_inst_3b/U98
*393 xofiller!SHFILL1!x486000y150000
*394 xofiller!SHFILL1!x489200y150000
*395 transmitter/enc/enc_inst_3b/U100
*396 xofiller!SHFILL1!x492400y150000
*397 xofiller!SHFILL1!x495600y150000
*398 transmitter/enc/enc_inst_3b/U102
*399 xofiller!SHFILL1!x498800y150000
*400 xofiller!SHFILL1!x502000y150000
*401 xofiller!SHFILL1!x505200y150000
*402 xofiller!SHFILL1!x508400y150000
*403 transmitter/enc/enc_inst_3b/U105
*404 xofiller!SHFILL1!x511600y150000
*405 xofiller!SHFILL1!x514800y150000
*406 xofiller!SHFILL1!x518000y150000
*407 xofiller!SHFILL1!x521200y150000
*408 transmitter/enc/enc_inst_3b/U108
*409 transmitter/enc/enc_inst_3b/U109
*410 transmitter/enc/enc_inst_3b/U110
*411 xofiller!SHFILL1!x543600y150000
*412 xofiller!SHFILL1!x546800y150000
*413 transmitter/enc/enc_inst_3b/U112
*414 transmitter/enc/enc_inst_3b/U113
*415 transmitter/enc/enc_inst_3b/U114
*416 xofiller!SHFILL1!x550000y150000
*417 xofiller!SHFILL1!x553200y150000
*418 xofiller!SHFILL1!x556400y150000
*419 xofiller!SHFILL1!x578800y150000
*420 xofiller!SHFILL1!x582000y150000
*421 xofiller!SHFILL1!x585200y150000
*422 transmitter/enc/enc_inst_3b/U118
*423 transmitter/enc/enc_inst_3b/U119
*424 transmitter/enc/enc_inst_3b/U120
*425 transmitter/enc/enc_inst_3b/U121
*426 transmitter/enc/enc_inst_3b/U122
*427 transmitter/enc/enc_inst_3b/U123
*428 transmitter/enc/enc_inst_3b/U124
*429 transmitter/enc/enc_inst_3b/U125
*430 transmitter/enc/enc_inst_3b/U126
*431 transmitter/enc/enc_inst_3b/U127
*432 xofiller!SHFILL1!x607600y150000
*433 xofiller!SHFILL1!x610800y150000
*434 xofiller!SHFILL1!x614000y150000
*435 xofiller!SHFILL1!x617200y150000
*436 xofiller!SHFILL1!x620400y150000
*437 xofiller!SHFILL1!x642800y150000
*438 xofiller!SHFILL1!x646000y150000
*439 xofiller!SHFILL1!x649200y150000
*440 transmitter/enc/enc_inst_3b/U132
*441 transmitter/enc/enc_inst_3b/U133
*442 transmitter/enc/enc_inst_3b/U134
*443 transmitter/enc/enc_inst_3b/U135
*444 transmitter/enc/enc_inst_3b/U136
*445 transmitter/enc/enc_inst_3b/U137
*446 transmitter/enc/enc_inst_3b/U138
*447 transmitter/enc/enc_inst_3b/U139
*448 transmitter/enc/enc_inst_3b/U140
*449 transmitter/enc/enc_inst_3b/U141
*450 transmitter/enc/enc_inst_3b/U142
*451 xofiller!SHFILL1!x671600y150000
*452 xofiller!SHFILL1!x674800y150000
*453 transmitter/enc/enc_inst_3b/U144
*454 transmitter/enc/enc_inst_3b/U145
*455 transmitter/enc/enc_inst_3b/U146
*456 transmitter/enc/enc_inst_3b/U147
*457 transmitter/enc/enc_inst_3b/U148
*458 transmitter/enc/enc_inst_3b/U149
*459 transmitter/enc/enc_inst_3b/U150
*460 xofiller!SHFILL1!x678000y150000
*461 xofiller!SHFILL1!x681200y150000
*462 transmitter/enc/enc_inst_3b/U152
*463 transmitter/enc/enc_inst_3b/U153
*464 transmitter/enc/enc_inst_3b/U154
*465 transmitter/enc/enc_inst_3b/U155
*466 transmitter/enc/enc_inst_3b/U156
*467 transmitter/enc/enc_inst_3b/U157
*468 transmitter/enc/enc_inst_3b/U158
*469 transmitter/enc/enc_inst_3b/U159
*470 transmitter/enc/enc_inst_3b/U160
*471 xofiller!SHFILL1!x684400y150000
*472 xofiller!SHFILL1!x687600y150000
*473 transmitter/enc/enc_inst_3b/U162
*474 transmitter/enc/enc_inst_3b/U163
*475 transmitter/enc/enc_inst_5b/U20
*476 transmitter/enc/enc_inst_5b/U81
*477 transmitter/enc/enc_inst_5b/U90
*478 transmitter/enc/enc_inst_5b/U93
*479 transmitter/enc/enc_inst_5b/U94
*480 transmitter/enc/enc_inst_5b/U99
*481 transmitter/enc/enc_inst_5b/U104
*482 transmitter/enc/enc_inst_5b/U105
*483 transmitter/enc/enc_inst_5b/U112
*484 transmitter/enc/enc_inst_5b/U114
*485 transmitter/enc/enc_inst_5b/U117
*486 transmitter/enc/enc_inst_5b/U119
*487 xofiller!SHFILL1!x690800y150000
*488 xofiller!SHFILL1!x719600y150000
*489 transmitter/enc/enc_inst_5b/U5
*490 transmitter/enc/enc_inst_5b/U6
*491 transmitter/enc/enc_inst_5b/U7
*492 transmitter/enc/enc_inst_5b/U8
*493 transmitter/enc/enc_inst_5b/U9
*494 transmitter/enc/enc_inst_5b/U10
*495 xofiller!SHFILL1!x722800y150000
*496 xofiller!SHFILL1!x726000y150000
*497 xofiller!SHFILL1!x729200y150000
*498 xofiller!SHFILL1!x732400y150000
*499 transmitter/enc/enc_inst_5b/U13
*500 transmitter/enc/enc_inst_5b/U14
*501 transmitter/enc/enc_inst_5b/U15
*502 transmitter/enc/enc_inst_5b/U16
*503 transmitter/enc/enc_inst_5b/U17
*504 transmitter/enc/enc_inst_5b/U18
*505 transmitter/enc/enc_inst_5b/U19
*506 transmitter/enc/enc_inst_5b/U21
*507 transmitter/enc/enc_inst_5b/U22
*508 transmitter/enc/enc_inst_5b/U23
*509 transmitter/enc/enc_inst_5b/U24
*510 transmitter/enc/enc_inst_5b/U25
*511 transmitter/enc/enc_inst_5b/U26
*512 transmitter/enc/enc_inst_5b/U27
*513 transmitter/enc/enc_inst_5b/U28
*514 transmitter/enc/enc_inst_5b/U29
*515 transmitter/enc/enc_inst_5b/U30
*516 transmitter/enc/enc_inst_5b/U31
*517 transmitter/enc/enc_inst_5b/U32
*518 transmitter/enc/enc_inst_5b/U33
*519 transmitter/enc/enc_inst_5b/U34
*520 transmitter/enc/enc_inst_5b/U35
*521 transmitter/enc/enc_inst_5b/U36
*522 transmitter/enc/enc_inst_5b/U37
*523 transmitter/enc/enc_inst_5b/U38
*524 transmitter/enc/enc_inst_5b/U39
*525 transmitter/enc/enc_inst_5b/U40
*526 transmitter/enc/enc_inst_5b/U41
*527 transmitter/enc/enc_inst_5b/U42
*528 transmitter/enc/enc_inst_5b/U43
*529 transmitter/enc/enc_inst_5b/U44
*530 transmitter/enc/enc_inst_5b/U45
*531 xofiller!SHFILL1!x735600y150000
*532 xofiller!SHFILL1!x738800y150000
*533 transmitter/enc/enc_inst_5b/U47
*534 transmitter/enc/enc_inst_5b/U48
*535 transmitter/enc/enc_inst_5b/U49
*536 transmitter/enc/enc_inst_5b/U50
*537 xofiller!SHFILL1!x767600y150000
*538 xofiller!SHFILL1!x770800y150000
*539 xofiller!SHFILL1!x774000y150000
*540 xofiller!SHFILL1!x777200y150000
*541 xofiller!SHFILL1!x780400y150000
*542 xofiller!SHFILL1!x783600y150000
*543 transmitter/enc/enc_inst_5b/U54
*544 transmitter/enc/enc_inst_5b/U55
*545 transmitter/enc/enc_inst_5b/U56
*546 transmitter/enc/enc_inst_5b/U57
*547 transmitter/enc/enc_inst_5b/U58
*548 transmitter/enc/enc_inst_5b/U59
*549 transmitter/enc/enc_inst_5b/U60
*550 transmitter/enc/enc_inst_5b/U61
*551 transmitter/enc/enc_inst_5b/U62
*552 transmitter/enc/enc_inst_5b/U63
*553 transmitter/enc/enc_inst_5b/U64
*554 transmitter/enc/enc_inst_5b/U65
*555 transmitter/enc/enc_inst_5b/U66
*556 transmitter/enc/enc_inst_5b/U67
*557 transmitter/enc/enc_inst_5b/U68
*558 transmitter/enc/enc_inst_5b/U69
*559 transmitter/enc/enc_inst_5b/U70
*560 transmitter/enc/enc_inst_5b/U71
*561 transmitter/enc/enc_inst_5b/U72
*562 transmitter/enc/enc_inst_5b/U73
*563 transmitter/enc/enc_inst_5b/U74
*564 transmitter/enc/enc_inst_5b/U75
*565 transmitter/enc/enc_inst_5b/U76
*566 transmitter/enc/enc_inst_5b/U77
*567 transmitter/enc/enc_inst_5b/U78
*568 transmitter/enc/enc_inst_5b/U79
*569 transmitter/enc/enc_inst_5b/U80
*570 transmitter/enc/enc_inst_5b/U82
*571 transmitter/enc/enc_inst_5b/U83
*572 transmitter/enc/enc_inst_5b/U84
*573 transmitter/enc/enc_inst_5b/U85
*574 transmitter/enc/enc_inst_5b/U86
*575 transmitter/enc/enc_inst_5b/U87
*576 transmitter/enc/enc_inst_5b/U88
*577 transmitter/enc/enc_inst_5b/U89
*578 transmitter/enc/enc_inst_5b/U91
*579 transmitter/enc/enc_inst_5b/U92
*580 transmitter/enc/enc_inst_5b/U95
*581 transmitter/enc/enc_inst_5b/U96
*582 transmitter/enc/enc_inst_5b/U97
*583 transmitter/enc/enc_inst_5b/U98
*584 transmitter/enc/enc_inst_5b/U100
*585 transmitter/enc/enc_inst_5b/U101
*586 transmitter/enc/enc_inst_5b/U102
*587 xofiller!SHFILL1!x786800y150000
*588 xofiller!SHFILL1!x790000y150000
*589 transmitter/enc/enc_inst_5b/U106
*590 transmitter/enc/enc_inst_5b/U107
*591 transmitter/enc/enc_inst_5b/U108
*592 transmitter/enc/enc_inst_5b/U109
*593 transmitter/enc/enc_inst_5b/U110
*594 transmitter/enc/enc_inst_5b/U111
*595 xofiller!SHFILL1!x793200y150000
*596 xofiller!SHFILL1!x834800y150000
*597 transmitter/enc/enc_inst_5b/U115
*598 transmitter/enc/enc_inst_5b/U116
*599 xofiller!SHFILL1!x838000y150000
*600 xofiller!SHFILL1!x841200y150000
*601 transmitter/enc/enc_inst_5b/U120
*602 transmitter/enc/enc_inst_5b/U121
*603 transmitter/enc/enc_inst_5b/U122
*604 xofiller!SHFILL1!x844400y150000
*605 xofiller!SHFILL1!x866800y150000
*606 xofiller!SHFILL1!x870000y150000
*607 xofiller!SHFILL1!x873200y150000
*608 transmitter/enc/enc_inst_5b/U125
*609 transmitter/enc/enc_inst_5b/U126
*610 xofiller!SHFILL1!x876400y150000
*611 xofiller!SHFILL1!x898800y150000
*612 transmitter/enc/enc_inst_5b/U128
*613 xofiller!SHFILL1!x902000y150000
*614 xofiller!SHFILL1!x905200y150000
*615 transmitter/enc/enc_inst_5b/U131
*616 xofiller!SHFILL1!x908400y150000
*617 xofiller!SHFILL1!x911600y150000
*618 xofiller!SHFILL1!x934000y150000
*619 xofiller!SHFILL1!x937200y150000
*620 transmitter/enc/enc_inst_5b/U134
*621 transmitter/enc/enc_inst_5b/U135
*622 transmitter/enc/enc_inst_5b/U136
*623 transmitter/enc/enc_inst_5b/U137
*624 xofiller!SHFILL1!x940400y150000
*625 xofiller!SHFILL1!x943600y150000
*626 xofiller!SHFILL1!x946800y150000
*627 xofiller!SHFILL1!x950000y150000
*628 xofiller!SHFILL1!x953200y150000
*629 xofiller!SHFILL1!x956400y150000
*630 xofiller!SHFILL1!x959600y150000
*631 xofiller!SHFILL1!x962800y150000
*632 xofiller!SHFILL1!x966000y150000
*633 xofiller!SHFILL1!x988400y150000
*634 xofiller!SHFILL1!x991600y150000
*635 xofiller!SHFILL1!x994800y150000
*636 transmitter/enc/enc_inst_5b/U144
*637 xofiller!SHFILL1!x998000y150000
*638 xofiller!SHFILL1!x1001200y150000
*639 xofiller!SHFILL1!x1004400y150000
*640 xofiller!SHFILL1!x1007600y150000
*641 transmitter/enc/enc_inst_5b/U147
*642 transmitter/enc/enc_inst_5b/U148
*643 transmitter/enc/enc_inst_5b/U149
*644 xofiller!SHFILL1!x1010800y150000
*645 xofiller!SHFILL1!x1014000y150000
*646 transmitter/enc/enc_inst_5b/U151
*647 transmitter/enc/enc_inst_5b/U152
*648 transmitter/enc/enc_inst_5b/U153
*649 transmitter/enc/enc_inst_5b/U154
*650 transmitter/enc/enc_inst_5b/U155
*651 transmitter/enc/enc_inst_5b/U156
*652 xofiller!SHFILL1!x1065200y150000
*653 xofiller!SHFILL1!x1068400y150000
*654 transmitter/enc/enc_inst_5b/U158
*655 transmitter/enc/enc_inst_5b/U159
*656 transmitter/enc/enc_inst_5b/U160
*657 transmitter/enc/enc_inst_5b/U161
*658 transmitter/enc/enc_inst_5b/U162
*659 transmitter/enc/enc_inst_5b/U163
*660 transmitter/enc/enc_inst_5b/U164
*661 xofiller!SHFILL1!x1071600y150000
*662 xofiller!SHFILL1!x1074800y150000
*663 xofiller!SHFILL1!x1078000y150000
*664 xofiller!SHFILL1!x1081200y150000
*665 transmitter/enc/enc_inst_5b/U167
*666 xofiller!SHFILL1!x1084400y150000
*667 xofiller!SHFILL1!x1087600y150000
*668 xofiller!SHFILL1!x1090800y150000
*669 xofiller!SHFILL1!x1094000y150000
*670 xofiller!SHFILL1!x1097200y150000
*671 xofiller!SHFILL1!x1100400y150000
*672 xofiller!SHFILL1!x1103600y150000
*673 xofiller!SHFILL1!x1106800y150000
*674 transmitter/enc/enc_inst_5b/U172
*675 transmitter/enc/enc_inst_5b/U173
*676 transmitter/enc/enc_inst_5b/U174
*677 transmitter/enc/enc_inst_5b/U175
*678 transmitter/enc/enc_inst_5b/U176
*679 xofiller!SHFILL1!x1110000y150000
*680 xofiller!SHFILL1!x1113200y150000
*681 transmitter/enc/enc_inst_5b/U178
*682 xofiller!SHFILL1!x1116400y150000
*683 xofiller!SHFILL1!x1119600y150000
*684 xofiller!SHFILL1!x1122800y150000
*685 xofiller!SHFILL1!x1126000y150000
*686 xofiller!SHFILL1!x1129200y150000
*687 xofiller!SHFILL1!x1132400y150000
*688 transmitter/enc/enc_inst_5b/U182
*689 transmitter/enc/enc_inst_5b/U183
*690 transmitter/enc/enc_inst_5b/U184
*691 transmitter/enc/enc_inst_5b/U185
*692 xofiller!SHFILL1!x1135600y150000
*693 xofiller!SHFILL1!x1138800y150000
*694 transmitter/enc/enc_inst_5b/U187
*695 transmitter/enc/enc_inst_5b/U188
*696 transmitter/enc/enc_inst_5b/U189
*697 transmitter/enc/enc_inst_5b/U190
*698 transmitter/enc/enc_inst_5b/U191
*699 transmitter/enc/enc_inst_5b/U192
*700 transmitter/enc/enc_inst_5b/U193
*701 transmitter/enc/enc_inst_5b/U194
*702 transmitter/enc/enc_inst_5b/U195
*703 transmitter/enc/enc_inst_5b/U196
*704 transmitter/enc/enc_inst_5b/U197
*705 transmitter/enc/enc_inst_5b/U198
*706 transmitter/enc/enc_inst_5b/U199
*707 transmitter/enc/enc_inst_5b/U200
*708 transmitter/enc/enc_inst_5b/U201
*709 transmitter/enc/enc_inst_5b/U202
*710 transmitter/enc/enc_inst_5b/U203
*711 transmitter/enc/enc_inst_5b/U204
*712 transmitter/enc/enc_inst_5b/U205
*713 xofiller!SHFILL1!x1142000y150000
*714 xofiller!SHFILL1!x1145200y150000
*715 xofiller!SHFILL1!x1148400y150000
*716 xofiller!SHFILL1!x1151600y150000
*717 xofiller!SHFILL1!x1154800y150000
*718 xofiller!SHFILL1!x1158000y150000
*719 transmitter/enc/enc_inst_5b/U209
*720 transmitter/enc/enc_inst_5b/U210
*721 transmitter/enc/enc_inst_5b/U211
*722 transmitter/enc/enc_inst_5b/U212
*723 xofiller!SHFILL1!x1161200y150000
*724 xofiller!SHFILL1!x1164400y150000
*725 transmitter/enc/enc_inst_5b/U214
*726 xofiller!SHFILL1!x1167600y150000
*727 xofiller!SHFILL1!x1170800y150000
*728 xofiller!SHFILL1!x1174000y150000
*729 xofiller!SHFILL1!x1177200y150000
*730 xofiller!SHFILL1!x1180400y150000
*731 xofiller!SHFILL1!x1183600y150000
*732 transmitter/enc/enc_inst_5b/U218
*733 transmitter/enc/enc_inst_5b/U219
*734 transmitter/enc/enc_inst_5b/U220
*735 xofiller!SHFILL1!x1186800y150000
*736 xofiller!SHFILL1!x1190000y150000
*737 transmitter/enc/enc_inst_5b/U222
*738 transmitter/enc/enc_inst_5b/U223
*739 xofiller!SHFILL1!x1193200y150000
*740 xofiller!SHFILL1!x1196400y150000
*741 xofiller!SHFILL1!x1199600y150000
*742 xofiller!SHFILL1!x1202800y150000
*743 xofiller!SHFILL1!x1206000y150000
*744 xofiller!SHFILL1!x1209200y150000
*745 xofiller!SHFILL1!x1212400y150000
*746 xofiller!SHFILL1!x1215600y150000
*747 xofiller!SHFILL1!x1218800y150000
*748 xofiller!SHFILL1!x1222000y150000
*749 xofiller!SHFILL1!x1225200y150000
*750 xofiller!SHFILL1!x1228400y150000
*751 xofiller!SHFILL1!x1231600y150000
*752 xofiller!SHFILL1!x1234800y150000
*753 transmitter/enc/enc_inst_5b/U231
*754 transmitter/enc/enc_inst_5b/U232
*755 transmitter/enc/enc_inst_5b/U233
*756 transmitter/enc/enc_inst_5b/U234
*757 transmitter/enc/enc_inst_5b/U235
*758 xofiller!SHFILL1!x1238000y150000
*759 xofiller!SHFILL1!x1241200y150000
*760 xofiller!SHFILL1!x1244400y150000
*761 xofiller!SHFILL1!x1247600y150000
*762 transmitter/enc/enc_inst_5b/U238
*763 transmitter/enc/enc_inst_5b/U239
*764 transmitter/enc/enc_inst_5b/U240
*765 transmitter/enc/enc_inst_5b/U241
*766 transmitter/enc/enc_inst_5b/U242
*767 transmitter/enc/enc_inst_5b/U243
*768 transmitter/enc/enc_inst_5b/U244
*769 transmitter/enc/enc_inst_5b/U245
*770 transmitter/enc/enc_inst_5b/U246
*771 xofiller!SHFILL1!x1250800y150000
*772 xofiller!SHFILL1!x1254000y150000
*773 xofiller!SHFILL1!x1257200y150000
*774 xofiller!SHFILL1!x1260400y150000
*775 transmitter/enc/enc_inst_5b/U249
*776 transmitter/enc/enc_inst_5b/U250
*777 transmitter/enc/enc_inst_5b/U251
*778 transmitter/enc/enc_inst_5b/U252
*779 transmitter/enc/enc_inst_5b/U253
*780 transmitter/enc/enc_inst_5b/U254
*781 transmitter/enc/enc_inst_5b/U255
*782 transmitter/enc/enc_inst_5b/U256
*783 transmitter/enc/enc_inst_5b/U257
*784 transmitter/enc/enc_inst_5b/U258
*785 transmitter/enc/enc_inst_5b/U259
*786 transmitter/enc/enc_inst_5b/U260
*787 xofiller!SHFILL1!x1263600y150000
*788 xofiller!SHFILL1!x1266800y150000
*789 xofiller!SHFILL1!x1270000y150000
*790 xofiller!SHFILL1!x1273200y150000
*791 xofiller!SHFILL1!x1276400y150000
*792 xofiller!SHFILL1!x1279600y150000
*793 xofiller!SHFILL1!x1282800y150000
*794 xofiller!SHFILL1!x1286000y150000
*795 transmitter/enc/enc_inst_5b/U265
*796 xofiller!SHFILL1!x1289200y150000
*797 xofiller!SHFILL1!x1292400y150000
*798 xofiller!SHFILL1!x1295600y150000
*799 xofiller!SHFILL1!x1298800y150000
*800 transmitter/enc/enc_inst_5b/U268
*801 transmitter/enc/enc_inst_5b/U269
*802 transmitter/enc/enc_inst_5b/U270
*803 transmitter/enc/enc_inst_5b/U271
*804 transmitter/enc/enc_inst_5b/U272
*805 transmitter/enc/enc_inst_5b/U273
*806 transmitter/enc/enc_inst_5b/U274
*807 transmitter/enc/enc_inst_5b/U275
*808 transmitter/enc/enc_inst_5b/U276
*809 transmitter/enc/enc_inst_5b/U277
*810 transmitter/enc/enc_inst_5b/U278
*811 transmitter/enc/enc_inst_5b/U279
*812 xofiller!SHFILL1!x1302000y150000
*813 xofiller!SHFILL1!x1305200y150000
*814 xofiller!SHFILL1!x1308400y150000
*815 xofiller!SHFILL1!x1311600y150000
*816 xofiller!SHFILL1!x1314800y150000
*817 xofiller!SHFILL1!x1318000y150000
*818 xofiller!SHFILL1!x1321200y150000
*819 xofiller!SHFILL1!x1324400y150000
*820 transmitter/enc/enc_inst_5b/U284
*821 transmitter/enc/enc_inst_5b/U285
*822 transmitter/enc/enc_inst_5b/U286
*823 transmitter/enc/enc_inst_5b/U287
*824 xofiller!SHFILL1!x1327600y150000
*825 xofiller!SHFILL1!x1330800y150000
*826 transmitter/enc/enc_inst_5b/U289
*827 transmitter/enc/enc_inst_5b/U290
*828 transmitter/enc/enc_inst_5b/U291
*829 transmitter/enc/enc_inst_5b/U292
*830 transmitter/enc/enc_inst_5b/U293
*831 transmitter/enc/enc_inst_5b/U294
*832 transmitter/enc/enc_inst_5b/U295
*833 transmitter/enc/enc_inst_5b/U296
*834 transmitter/enc/enc_inst_5b/U297
*835 xofiller!SHFILL1!x1334000y150000
*836 xofiller!SHFILL1!x1337200y150000
*837 transmitter/enc/enc_inst_5b/U299
*838 transmitter/enc/enc_inst_5b/U300
*839 transmitter/enc/enc_inst_5b/U301
*840 xofiller!SHFILL1!x1340400y150000
*841 xofiller!SHFILL1!x1343600y150000
*842 xofiller!SHFILL1!x1346800y150000
*843 xofiller!SHFILL1!x1350000y150000
*844 transmitter/enc/enc_inst_5b/U304
*845 transmitter/enc/enc_inst_5b/U305
*846 transmitter/enc/enc_inst_5b/U306
*847 transmitter/enc/enc_inst_5b/U307
*848 transmitter/enc/enc_inst_5b/U308
*849 transmitter/enc/enc_inst_5b/U309
*850 transmitter/enc/enc_inst_5b/U310
*851 transmitter/enc/enc_inst_5b/U311
*852 transmitter/enc/enc_inst_5b/U312
*853 transmitter/enc/enc_inst_5b/U313
*854 transmitter/enc/enc_inst_5b/U314
*855 xofiller!SHFILL1!x1353200y150000
*856 xofiller!SHFILL1!x1356400y150000
*857 transmitter/enc/enc_inst_5b/U316
*858 transmitter/enc/enc_inst_5b/U317
*859 transmitter/enc/enc_inst_5b/U318
*860 transmitter/enc/enc_inst_5b/U319
*861 transmitter/enc/enc_inst_5b/U320
*862 transmitter/enc/enc_inst_5b/U321
*863 xofiller!SHFILL1!x1359600y150000
*864 xofiller!SHFILL1!x1362800y150000
*865 transmitter/enc/enc_inst_5b/U323
*866 transmitter/enc/enc_inst_5b/U324
*867 transmitter/enc/enc_inst_5b/U325
*868 transmitter/enc/enc_inst_5b/U326
*869 xofiller!SHFILL1!x1366000y150000